Version 4.1
SHEET 1 928 680
WIRE 272 -256 272 -288
WIRE 272 -144 272 -176
WIRE 272 -144 192 -144
WIRE 352 -144 272 -144
WIRE 352 -112 352 -144
WIRE 192 -64 192 -144
WIRE 352 32 352 -32
WIRE 432 32 352 32
WIRE 576 32 496 32
WIRE 656 32 576 32
WIRE 352 48 352 32
WIRE -112 96 -192 96
WIRE 48 96 -32 96
WIRE 192 96 192 16
WIRE 192 96 112 96
WIRE 288 96 192 96
WIRE 576 112 576 32
WIRE 352 160 352 144
WIRE 496 160 352 160
WIRE -192 176 -192 96
WIRE 192 176 192 96
WIRE 352 176 352 160
WIRE 496 176 496 160
WIRE -192 336 -192 256
WIRE 192 336 192 256
WIRE 352 336 352 256
WIRE 496 336 496 240
WIRE 576 336 576 192
FLAG -192 336 0
FLAG 192 336 0
FLAG 352 336 0
FLAG 496 336 0
FLAG 576 336 0
FLAG 272 -288 0
FLAG 656 32 Vo
FLAG -192 96 Vi
SYMBOL voltage 272 -160 R180
WINDOW 123 0 0 Left 0
WINDOW 39 0 0 Left 0
SYMATTR InstName VCC
SYMATTR Value 12
SYMBOL voltage -192 160 R0
WINDOW 123 0 0 Left 0
WINDOW 39 0 0 Left 0
SYMATTR InstName Vi
SYMATTR Value SINE(0 25m 10k)
SYMBOL res 176 -80 R0
SYMATTR InstName R1
SYMATTR Value 10k
SYMBOL res 176 160 R0
SYMATTR InstName R2
SYMATTR Value 4.7k
SYMBOL res 336 -128 R0
SYMATTR InstName RC
SYMATTR Value 4.7k
SYMBOL res 336 160 R0
SYMATTR InstName RE
SYMATTR Value 3.3k
SYMBOL res 560 96 R0
SYMATTR InstName RL
SYMATTR Value 4.7k
SYMBOL res -16 80 R90
WINDOW 0 0 56 VBottom 2
WINDOW 3 32 56 VTop 2
SYMATTR InstName RS
SYMATTR Value 1k
SYMBOL cap 112 80 R90
WINDOW 0 0 32 VBottom 2
WINDOW 3 32 32 VTop 2
SYMATTR InstName C1
SYMATTR Value 10µ
SYMBOL cap 512 240 R180
WINDOW 0 24 56 Left 2
WINDOW 3 24 8 Left 2
SYMATTR InstName CE
SYMATTR Value 10µ
SYMBOL cap 496 16 R90
WINDOW 0 0 32 VBottom 2
WINDOW 3 32 32 VTop 2
SYMATTR InstName C2
SYMATTR Value 10µ
SYMBOL npn 288 48 R0
SYMATTR InstName Q1
SYMATTR Value 2N3904a
TEXT 568 -248 Left 2 !.model 2N3904a NPN(Bf=130)
TEXT 568 -216 Left 2 !.tran 500u
TEXT 568 -184 Left 2 !.MEAS TRAN Vi_pp PP V(vi)
TEXT 568 -152 Left 2 !.MEAS TRAN Vo_pp PP V(vo)
